@<TRIPOS>MOLECULE
LIG
    7     6     1     0     0
SMALL
bcc


@<TRIPOS>ATOM
      1 P          -0.7410   -0.4030    0.0200 p5        1 LIG      1.426800
      2 O           0.8640   -0.4370   -0.2140 oh        1 LIG     -0.784400
      3 O1         -1.3150   -1.9210    0.0540 o         1 LIG     -0.849500
      4 O2         -1.4390    0.4180   -1.1920 oh        1 LIG     -0.784400
      5 H           1.2860   -0.9390    0.5050 ho        1 LIG      0.420000
      6 H1         -1.0910    1.3270   -1.2130 ho        1 LIG      0.420000
      7 O3         -1.0620    0.3350    1.4310 o         1 LIG     -0.849500
@<TRIPOS>BOND
     1    1    2 1   
     2    1    3 1   
     3    1    4 1   
     4    1    7 1   
     5    2    5 1   
     6    4    6 1   
@<TRIPOS>SUBSTRUCTURE
     1 LIG         1 TEMP              0 ****  ****    0 ROOT
