@<TRIPOS>MOLECULE
PI1
    6     5     1     0     0
SMALL
bcc


@<TRIPOS>ATOM
      1 P          -3.2340    1.8470    0.8230 p5        1 PI1      1.319900
      2 O          -1.9860    0.8120    0.7550 o         1 PI1     -0.956500
      3 O1         -4.4350    1.1970    1.7300 o         1 PI1     -0.956500
      4 O2         -3.7760    2.1100   -0.6960 o         1 PI1     -0.956500
      5 O3         -2.7430    3.2520    1.4670 oh        1 PI1     -0.815400
      6 H          -2.0280    3.6320    0.9140 ho        1 PI1      0.364000
@<TRIPOS>BOND
     1    1    2 1   
     2    1    3 1   
     3    1    4 1   
     4    1    5 1   
     5    5    6 1   
@<TRIPOS>SUBSTRUCTURE
     1 PI1         1 TEMP              0 ****  ****    0 ROOT
