@<TRIPOS>MOLECULE
LIG
    5     4     1     0     0
SMALL
bcc


@<TRIPOS>ATOM
      1 S           0.0730   -0.0790   -0.0000 s6        1 LIG      1.389800
      2 O           1.0780   -0.9070   -0.9100 o         1 LIG     -0.347200
      3 O1         -1.3940   -0.1860   -0.5990 o         1 LIG     -0.347200
      4 O2          0.5210    1.4440    0.0340 o         1 LIG     -0.347200
      5 O3          0.0860   -0.6680    1.4750 o         1 LIG     -0.347200
@<TRIPOS>BOND
     1    1    2 1   
     2    1    3 1   
     3    1    4 1   
     4    1    5 1   
@<TRIPOS>SUBSTRUCTURE
     1 LIG         1 TEMP              0 ****  ****    0 ROOT
