#
# Generated by PyRED version MAY-2014
# http://q4md-forcefieldtools.org
#
@<TRIPOS>MOLECULE
AS1
     6     5     1     0     1
SMALL
USER_CHARGES
@<TRIPOS>ATOM
   1 AS    -0.112787   0.000015  -0.062030 As   1   AS1  1.4070  0.0000 ****
   2 O1    -0.939679   1.394942   0.248413 O    1   AS1 -0.9733  0.0000 ****
   3 O2    -0.939706  -1.395032   0.247881 O    1   AS1 -0.9733  0.0000 ****
   4 O3     0.804762   0.000293  -1.447175 O    1   AS1 -0.9733  0.0000 ****
   5 O      1.289910  -0.000248   1.142597 OH   1   AS1 -0.8125  0.4650 ****
   6 H      1.999667  -0.000127   0.513241 HO   1   AS1  0.3254  0.1350 ****
@<TRIPOS>BOND
    1     1     2 1
    2     1     3 1
    3     1     4 1
    4     1     5 1
    5     5     6 1
@<TRIPOS>SUBSTRUCTURE
      1 AS1               1 ****               0 ****  ****
@<TRIPOS>HEADTAIL
0 0
0 0
@<TRIPOS>RESIDUECONNECT
1 0 0 0 0 0 0
