@<TRIPOS>MOLECULE
LIG
    6     5     1     0     0
SMALL
bcc


@<TRIPOS>ATOM
      1 S          -1.0080    1.0860   -1.0980 s6        1 LIG      1.699300
      2 O           0.0850    0.1730   -0.9200 o         1 LIG     -0.767867
      3 O1         -1.9910    1.3910   -0.0980 o         1 LIG     -0.767867
      4 O2         -1.6990    0.8550   -2.5010 oh        1 LIG     -0.813700
      5 O3         -0.3390    2.4760   -1.4690 o         1 LIG     -0.767867
      6 H          -1.4730    1.6170   -3.0600 ho        1 LIG      0.419000
@<TRIPOS>BOND
     1    1    2 1   
     2    1    3 1   
     3    1    4 1   
     4    1    5 1   
     5    4    6 1   
@<TRIPOS>SUBSTRUCTURE
     1 LIG         1 TEMP              0 ****  ****    0 ROOT
